[General]
network = Scenario
sim-time-limit = 60min

*.hosts = 3

**.constraintAreaMinX = 0m
**.constraintAreaMinY = 0m
**.constraintAreaMinZ = 0m
**.constraintAreaMaxX = 600m
**.constraintAreaMaxY = 400m
**.constraintAreaMaxZ = 0m

# configurator
**.host*.ipv4.configurator.typename = "HostAutoConfigurator"
**.host*.ipv4.configurator.interfaces = "wlan0"

# mobility
**.host*.mobility.typename = "MassMobility"
**.host*.mobility.initFromDisplayString = false
**.host*.mobility.changeInterval = truncnormal(2s, 0.5s)
**.host*.mobility.angleDelta = normal(0deg, 30deg)
**.host*.mobility.speed = truncnormal(20mps, 8mps)
**.host*.mobility.updateInterval = 100ms

# UdpBasicApp / UdpSink
**.host*.numApps = 1
**.app[0].typename = "UdpBasicApp"
**.app[0].destAddresses = "host[0]"
**.app[0].localPort = 9001
**.app[0].destPort = 9001
**.app[0].messageLength = 100B
**.app[0].startTime = uniform(10s, 30s)
**.app[0].sendInterval = uniform(10s, 30s)

# nic settings
**.wlan[*].bitrate = 2Mbps

**.wlan[*].mac.dcf.channelAccess.cwMin = 7

**.wlan[*].radio.transmitter.power = 2mW
**.wlan[*].radio.receiver.sensitivity = -85dBm
**.wlan[*].radio.receiver.snirThreshold = 4dB

**.udpapp.*.vector-recording = true
**.vector-recording = true


#visual
*.visualizer.mediumVisualizer.displaySignals = true
*.visualizer.physicalLinkVisualizer.displayLinks = true
*.visualizer.physicalLinkVisualizer.packetFilter = "UDPData*"
*.visualizer.dataLinkVisualizer.displayLinks = true
*.visualizer.networkRouteVisualizer.displayRoutes = true
*.visualizer.*LinkVisualizer.lineShift = 0
*.visualizer.networkRouteVisualizer.lineShift = 0
*.visualizer.networkRouteVisualizer.packetFilter = "UDPData*"
*.host*.wlan[0].radio.displayCommunicationRange = true
