[General]
sim-time-limit = 25s


[Config Wireless01]
description = Two hosts communicating wirelessly
network = WirelessA

*.host*.ipv4.arp.typename = "GlobalArp"
*.hostA.numApps = 1
*.hostA.app[0].typename = "UdpBasicApp"
*.hostA.app[0].destAddresses = "hostB"
*.hostA.app[0].destPort = 5000
*.hostA.app[0].messageLength = 1000B
*.hostA.app[0].sendInterval = exponential(10ms)
*.hostA.app[0].packetName = "UDPData"

*.hostB.numApps = 1
*.hostB.app[0].typename = "UdpSink"
*.hostB.app[0].localPort = 5000

*.host*.wlan[0].typename = "AckingWirelessInterface"
*.host*.wlan[0].mac.useAck = false
*.host*.wlan[0].mac.fullDuplex = false
*.host*.wlan[0].radio.transmitter.communicationRange = 500m
*.host*.**.bitrate = 1Mbps
*.radioMedium.*.maxTransmissionDuration = 1s
*.host[*].wlan[0].mac.headerLength = 23B

*.host*.wlan[0].radio.displayCommunicationRange = true
*.visualizer.sceneVisualizer.descriptionFigure = "title"
*.visualizer.mediumVisualizer.displaySignals = true
*.visualizer.physicalLinkVisualizer.displayLinks = true
*.visualizer.physicalLinkVisualizer.packetFilter = "UDPData*"

#**.mac.dcf.channelAccess.pendingQueue.packetCapacity = -1
#*.host[*].wlan[*].radio.transmitter.preambleDuration = 0s
#*.host[*].wlan[*].queue.packetCapacity = 100
#*.host[*].wlan[*].mac.bitrate = 3Mbps
#*.host[*].wlan[0].radio.receiver.ignoreInterference = true
#*.host[*].wlan[*].radio.transmitter.bitrate = 3Mbps