[General]
network = wlan7
sim-time-limit = 25s

#приложения
*.hostA.numApps = 1
*.hostA.app[0].typename = "UdpBasicApp"
*.hostA.app[0].destAddresses = "hostB"
*.hostA.app[0].destPort = 5000
*.hostA.app[0].messageLength = 1000B
*.hostA.app[0].sendInterval = exponential(10ms)
*.hostA.app[0].packetName = "myUDP"

*.hostB.numApps = 1
*.hostB.app[0].typename = "UdpSink"
*.hostB.app[0].localPort = 5000

#визуализатор
#visual
*.host*.wlan[0].radio.displayInterferenceRange = true
*.host*.wlan[0].radio.displayCommunicationRange = true
*.visualizer.sceneVisualizer.descriptionFigure = "title"
*.visualizer.mediumVisualizer.displaySignals = true
*.visualizer.physicalLinkVisualizer.displayLinks = true
*.visualizer.dataLinkVisualizer.displayLinks = true
*.visualizer.networkRouteVisualizer.displayRoutes = true
*.visualizer.*LinkVisualizer.lineShift = 0
*.visualizer.networkRouteVisualizer.lineShift = 0
*.visualizer.mobilityVisualizer.displayVelocities = true
*.visualizer.mobilityVisualizer.displayMovementTrails = true

#роутинг
*.configurator.config = xml("<config><interface hosts='**' address='10.0.0.x' netmask='255.255.255.0'/><autoroute metric='errorRate'/></config>")
*.configurator.optimizeRoutes = false
*.host*.ipv4.routingTable.netmaskRoutes = ""
*.host*.ipv4.arp.typename = "GlobalArp"

*.configurator.addStaticRoutes = false
*.host*.typename = "AodvRouter"
*.visualizer.dataLinkVisualizer.packetFilter = "AODV*"


*.host*.wlan[*].typename = "WirelessInterface"
*.host*.wlan[0].radio.receiver.ignoreInterference = false
*.host*.**.bitrate = 1Mbps
*.host*.wlan[0].mac.typename = "CsmaCaMac"
*.host*.wlan[0].mac.useAck = true
*.host*.wlan[0].queue.typename = "DropTailQueue"
*.host*.wlan[0].queue.packetCapacity = 10 
*.host*.wlan[0].mac.ackTimeout = 300us


#энергомодель
*.host*.wlan[0].radio.energyConsumer.typename = "StateBasedEpEnergyConsumer"
*.host*.energyStorage.typename = "IdealEpEnergyStorage"

#мобильность
*.hostR*.mobility.typename = "LinearMobility"
*.hostR*.mobility.speed = 12mps
*.hostR*.mobility.initialMovementHeading = 270deg

*.host*.mobility.initialZ = 1.7m
*.physicalEnvironment.config = xmldoc("stena.xml")
*.radioMedium.obstacleLoss.typename = "IdealObstacleLoss"

[Config WLAN-7-1]
*.host*.wlan[*].typename = "WirelessInterface"
*.host*.wlan[0].radio.typename = "UnitDiskRadio"
*.host*.wlan[0].radio.transmitter.communicationRange = 250m
*.host*.wlan[0].radio.transmitter.interferenceRange = 500m


[Config WLAN-7-2]
*.radioMedium.typename = "ApskScalarRadioMedium"
*.radioMedium.backgroundNoise.power = -90dBm
*.radioMedium.mediumLimitCache.centerFrequency = 2.412GHz

*.host*.wlan[0].radio.typename = "ApskScalarRadio"
*.host*.wlan[0].radio.centerFrequency = 2.412GHz
*.host*.wlan[0].radio.bandwidth = 2MHz

*.host*.wlan[0].radio.transmitter.power = 1.4mW
*.host*.wlan[0].radio.transmitter.preambleDuration = 10us
*.host*.wlan[0].radio.transmitter.headerLength = 8B
*.host*.wlan[0].radio.receiver.sensitivity = -85dBm
*.host*.wlan[0].radio.receiver.energyDetection = -85dBm
*.host*.wlan[0].radio.receiver.snirThreshold = 4dB


[Config WLAN-7-3]
description = Configuring a more accurate pathloss model
extends = WLAN-7-2

*.physicalEnvironment.ground.typename = "FlatGround"
*.physicalEnvironment.ground.elevation = 0m
*.radioMedium.pathLoss.typename = "TwoRayGroundReflection"


[Config WLAN-7-4]
description = Introducing antenna gain
extends = WLAN-7-3

*.host*.wlan[0].radio.antenna.typename = "ConstantGainAntenna"
*.host*.wlan[0].radio.antenna.gain = 3dB


